8

Au            0.162735          -0.737228           4.279334
Au            0.739074           1.387388           5.934667
Au            2.458502          -0.538900           5.517010
Au           -1.690916          -1.890011           2.835392
Au           -2.015255           0.654802           3.342885
Au           -3.214228           2.961850           3.069783
Au           -1.442058           2.787666           4.987140
Au           -0.108203           3.569834           7.094791