6
symmetry c1
Au       2.466563000      2.123960000      7.088576000
Au       0.523543000      0.256644000      0.902100000
Au      -0.365899000      1.741392000      2.715715000
Au      -1.424962000      3.337234000      4.511342000
Au       0.142904000      3.467120000      6.765009000
Au       1.081716000      1.883522000      4.861367000